
     RDKit          3D

 32 32  0  0  0  0  0  0  0  0999 V2000
   -1.3377   -2.9843    0.8238 O   0  0  0  0  0  0  0  0  0  0  0  0
   -0.9465   -1.7545    0.2834 C   0  0  0  0  0  0  0  0  0  0  0  0
    0.3674   -1.5397   -0.1134 C   0  0  0  0  0  0  0  0  0  0  0  0
    0.7090   -0.3003   -0.6453 C   0  0  0  0  0  0  0  0  0  0  0  0
   -0.2732    0.6681   -0.7576 C   0  0  0  0  0  0  0  0  0  0  0  0
   -1.5793    0.4650   -0.3669 C   0  0  0  0  0  0  0  0  0  0  0  0
   -2.5692    1.4043   -0.4669 O   0  0  0  0  0  0  0  0  0  0  0  0
   -2.4673    2.7011   -0.9616 C   0  0  0  0  0  0  0  0  0  0  0  0
   -1.9068   -0.7687    0.1595 C   0  0  0  0  0  0  0  0  0  0  0  0
   -3.1883   -1.0214    0.5621 O   0  0  0  0  0  0  0  0  0  0  0  0
   -4.2360   -1.5482   -0.2054 C   0  0  0  0  0  0  0  0  0  0  0  0
    2.0621    0.0418   -1.0975 C   0  0  0  0  0  0  0  0  0  0  0  0
    2.8173    0.6361    0.0942 C   0  0  0  0  0  0  0  0  0  0  0  0
    2.8838   -0.3339    1.1748 N   0  0  0  0  0  0  0  0  0  0  0  0
   -0.3874   -4.0242    0.9700 C   0  0  0  0  0  0  0  0  0  0  0  0
    1.1157   -2.3010   -0.0194 H   0  0  0  0  0  0  0  0  0  0  0  0
   -0.0287    1.6284   -1.1648 H   0  0  0  0  0  0  0  0  0  0  0  0
   -1.5670    2.9043   -1.5715 H   0  0  0  0  0  0  0  0  0  0  0  0
   -2.5727    3.4933   -0.1981 H   0  0  0  0  0  0  0  0  0  0  0  0
   -3.3272    2.8578   -1.6742 H   0  0  0  0  0  0  0  0  0  0  0  0
   -4.7405   -2.3359    0.4194 H   0  0  0  0  0  0  0  0  0  0  0  0
   -3.7793   -2.0869   -1.0642 H   0  0  0  0  0  0  0  0  0  0  0  0
   -5.0169   -0.8273   -0.4753 H   0  0  0  0  0  0  0  0  0  0  0  0
    2.0963    0.7115   -1.9589 H   0  0  0  0  0  0  0  0  0  0  0  0
    2.6143   -0.8775   -1.4010 H   0  0  0  0  0  0  0  0  0  0  0  0
    3.8542    0.8949   -0.2023 H   0  0  0  0  0  0  0  0  0  0  0  0
    2.2903    1.5340    0.4829 H   0  0  0  0  0  0  0  0  0  0  0  0
    3.1397   -1.2793    0.7658 H   0  0  0  0  0  0  0  0  0  0  0  0
    3.6197   -0.0759    1.8584 H   0  0  0  0  0  0  0  0  0  0  0  0
    0.1828   -4.1185    0.0161 H   0  0  0  0  0  0  0  0  0  0  0  0
   -0.9896   -4.9484    1.1715 H   0  0  0  0  0  0  0  0  0  0  0  0
    0.2448   -3.7821    1.8420 H   0  0  0  0  0  0  0  0  0  0  0  0
  1  2  1  0
  2  3  2  0
  3  4  1  0
  4  5  2  0
  5  6  1  0
  6  7  1  0
  7  8  1  0
  6  9  2  0
  9 10  1  0
 10 11  1  0
  4 12  1  0
 12 13  1  0
 13 14  1  0
  1 15  1  0
  9  2  1  0
  3 16  1  0
  5 17  1  0
  8 18  1  0
  8 19  1  0
  8 20  1  0
 11 21  1  0
 11 22  1  0
 11 23  1  0
 12 24  1  0
 12 25  1  0
 13 26  1  0
 13 27  1  0
 14 28  1  0
 14 29  1  0
 15 30  1  0
 15 31  1  0
 15 32  1  0
M  END
$$$$
